
(###) main... (-147527360)(T0=2016-4-7_0:14:57 T1=0.0410)
Login Starting... (1604070014)(0) (-147527360)(T0=2016-4-7_0:14:57 T1=0.0420)
new ProcessManager...OK (-147527360)(T0=2016-4-7_0:14:57 T1=0.2910)
new PlayerPool...OK (-147527360)(T0=2016-4-7_0:14:57 T1=0.2910)
new PacketFactoryManager...OK (-147527360)(T0=2016-4-7_0:14:57 T1=0.2910)
new BillPacketFactoryManager...OK (-147527360)(T0=2016-4-7_0:14:57 T1=0.2910)
new g_pProcessPlayerQueue...OK (-147527360)(T0=2016-4-7_0:14:57 T1=0.2910)
new g_pWorldPlayerQueue...OK (-147527360)(T0=2016-4-7_0:14:57 T1=0.2910)
new ThreadManager...OK (-147527360)(T0=2016-4-7_0:14:57 T1=0.2910)
new ServerManager...OK (-147527360)(T0=2016-4-7_0:14:57 T1=0.2910)
new DBThreadManager...OK (-147527360)(T0=2016-4-7_0:14:57 T1=0.2910)
new ConnectManager...OK (-147527360)(T0=2016-4-7_0:14:57 T1=0.2930)
new FontFile...OK (-147527360)(T0=2016-4-7_0:14:57 T1=0.2930)
new IPRegionTable...OK (-147527360)(T0=2016-4-7_0:14:57 T1=0.3130)
new Generator...OK (-147527360)(T0=2016-4-7_0:14:57 T1=0.3130)
g_pPlayerPool->Init()...OK (-147527360)(T0=2016-4-7_0:14:57 T1=0.3630)
g_pPacketFactoryManager->Init()...OK (-147527360)(T0=2016-4-7_0:14:57 T1=0.3630)
g_pBPacketFactoryManager->Init()...OK (-147527360)(T0=2016-4-7_0:14:57 T1=0.3630)
g_pTurnPlayerQueue->Init() ... OK (-147527360)(T0=2016-4-7_0:14:57 T1=0.3630)
g_pWorldPlayerQueue->Init() ... OK (-147527360)(T0=2016-4-7_0:14:57 T1=0.3630)
g_pDBThreadManager->Init()...OK (-147527360)(T0=2016-4-7_0:14:57 T1=0.3900)
g_pDBThreadManager->CheckWorldIDZoneID(101,0)...OK (-147527360)(T0=2016-4-7_0:14:57 T1=0.3990)
g_pConnectManager->Init()...OK (-147527360)(T0=2016-4-7_0:14:57 T1=0.4010)
g_pProcessManager->Init()...OK (-147527360)(T0=2016-4-7_0:14:57 T1=0.4010)
g_pThreadManager->Init()...OK (-147527360)(T0=2016-4-7_0:14:57 T1=0.4010)
g_pGenerator->setFontFile()...OK (-147527360)(T0=2016-4-7_0:14:57 T1=0.4090)

Loop... (-147527360)(T0=2016-4-7_0:14:57 T1=0.4090)
g_pConnectManager->start( )... (-147527360)(T0=2016-4-7_0:14:57 T1=0.4090)
g_pThreadManager->Start( )... (-147527360)(T0=2016-4-7_0:14:57 T1=0.4090)
g_pDBThreadManager->Start() ... (-147527360)(T0=2016-4-7_0:14:57 T1=0.4090)
g_pProcessManager->Loop( )... (-147527360)(T0=2016-4-7_0:14:57 T1=0.4090)
