
(###) main... (-147154624)(T0=2016-4-1_5:43:15 T1=0.0350)
Login Starting... (1604010543)(0) (-147154624)(T0=2016-4-1_5:43:15 T1=0.0350)
new ProcessManager...OK (-147154624)(T0=2016-4-1_5:43:16 T1=0.2590)
new PlayerPool...OK (-147154624)(T0=2016-4-1_5:43:16 T1=0.2590)
new PacketFactoryManager...OK (-147154624)(T0=2016-4-1_5:43:16 T1=0.2590)
new BillPacketFactoryManager...OK (-147154624)(T0=2016-4-1_5:43:16 T1=0.2590)
new g_pProcessPlayerQueue...OK (-147154624)(T0=2016-4-1_5:43:16 T1=0.2590)
new g_pWorldPlayerQueue...OK (-147154624)(T0=2016-4-1_5:43:16 T1=0.2590)
new ThreadManager...OK (-147154624)(T0=2016-4-1_5:43:16 T1=0.2590)
new ServerManager...OK (-147154624)(T0=2016-4-1_5:43:16 T1=0.2590)
new DBThreadManager...OK (-147154624)(T0=2016-4-1_5:43:16 T1=0.2600)
new ConnectManager...OK (-147154624)(T0=2016-4-1_5:43:16 T1=0.2610)
new FontFile...OK (-147154624)(T0=2016-4-1_5:43:16 T1=0.2610)
new IPRegionTable...OK (-147154624)(T0=2016-4-1_5:43:16 T1=0.2610)
new Generator...OK (-147154624)(T0=2016-4-1_5:43:16 T1=0.2610)
g_pPlayerPool->Init()...OK (-147154624)(T0=2016-4-1_5:43:16 T1=0.3110)
g_pPacketFactoryManager->Init()...OK (-147154624)(T0=2016-4-1_5:43:16 T1=0.3110)
g_pBPacketFactoryManager->Init()...OK (-147154624)(T0=2016-4-1_5:43:16 T1=0.3110)
g_pTurnPlayerQueue->Init() ... OK (-147154624)(T0=2016-4-1_5:43:16 T1=0.3110)
g_pWorldPlayerQueue->Init() ... OK (-147154624)(T0=2016-4-1_5:43:16 T1=0.3110)
g_pDBThreadManager->Init()...OK (-147154624)(T0=2016-4-1_5:43:16 T1=0.3320)
g_pDBThreadManager->CheckWorldIDZoneID(101,0)...OK (-147154624)(T0=2016-4-1_5:43:16 T1=0.3400)
g_pConnectManager->Init()...OK (-147154624)(T0=2016-4-1_5:43:16 T1=0.3430)
g_pProcessManager->Init()...OK (-147154624)(T0=2016-4-1_5:43:16 T1=0.3430)
g_pThreadManager->Init()...OK (-147154624)(T0=2016-4-1_5:43:16 T1=0.3430)
g_pGenerator->setFontFile()...OK (-147154624)(T0=2016-4-1_5:43:16 T1=0.3430)

Loop... (-147154624)(T0=2016-4-1_5:43:16 T1=0.3430)
g_pConnectManager->start( )... (-147154624)(T0=2016-4-1_5:43:16 T1=0.3430)
g_pThreadManager->Start( )... (-147154624)(T0=2016-4-1_5:43:16 T1=0.3430)
g_pDBThreadManager->Start() ... (-147154624)(T0=2016-4-1_5:43:16 T1=0.3430)
g_pProcessManager->Loop( )... (-147154624)(T0=2016-4-1_5:43:16 T1=0.3430)
