
(###) main... (-147302080)(T0=2016-4-5_14:12:2 T1=0.0400)
Login Starting... (1604051412)(0) (-147302080)(T0=2016-4-5_14:12:2 T1=0.0400)
new ProcessManager...OK (-147302080)(T0=2016-4-5_14:12:2 T1=0.2860)
new PlayerPool...OK (-147302080)(T0=2016-4-5_14:12:2 T1=0.2860)
new PacketFactoryManager...OK (-147302080)(T0=2016-4-5_14:12:2 T1=0.2860)
new BillPacketFactoryManager...OK (-147302080)(T0=2016-4-5_14:12:2 T1=0.2870)
new g_pProcessPlayerQueue...OK (-147302080)(T0=2016-4-5_14:12:2 T1=0.2870)
new g_pWorldPlayerQueue...OK (-147302080)(T0=2016-4-5_14:12:2 T1=0.2870)
new ThreadManager...OK (-147302080)(T0=2016-4-5_14:12:2 T1=0.2870)
new ServerManager...OK (-147302080)(T0=2016-4-5_14:12:2 T1=0.2870)
new DBThreadManager...OK (-147302080)(T0=2016-4-5_14:12:2 T1=0.2870)
new ConnectManager...OK (-147302080)(T0=2016-4-5_14:12:2 T1=0.2890)
new FontFile...OK (-147302080)(T0=2016-4-5_14:12:2 T1=0.2890)
new IPRegionTable...OK (-147302080)(T0=2016-4-5_14:12:2 T1=0.2900)
new Generator...OK (-147302080)(T0=2016-4-5_14:12:2 T1=0.2900)
g_pPlayerPool->Init()...OK (-147302080)(T0=2016-4-5_14:12:2 T1=0.3420)
g_pPacketFactoryManager->Init()...OK (-147302080)(T0=2016-4-5_14:12:2 T1=0.3430)
g_pBPacketFactoryManager->Init()...OK (-147302080)(T0=2016-4-5_14:12:2 T1=0.3430)
g_pTurnPlayerQueue->Init() ... OK (-147302080)(T0=2016-4-5_14:12:2 T1=0.3430)
g_pWorldPlayerQueue->Init() ... OK (-147302080)(T0=2016-4-5_14:12:2 T1=0.3430)
g_pDBThreadManager->Init()...OK (-147302080)(T0=2016-4-5_14:12:2 T1=0.3700)
g_pDBThreadManager->CheckWorldIDZoneID(101,0)...OK (-147302080)(T0=2016-4-5_14:12:2 T1=0.3780)
g_pConnectManager->Init()...OK (-147302080)(T0=2016-4-5_14:12:2 T1=0.3810)
g_pProcessManager->Init()...OK (-147302080)(T0=2016-4-5_14:12:2 T1=0.3810)
g_pThreadManager->Init()...OK (-147302080)(T0=2016-4-5_14:12:2 T1=0.3810)
g_pGenerator->setFontFile()...OK (-147302080)(T0=2016-4-5_14:12:2 T1=0.3810)

Loop... (-147302080)(T0=2016-4-5_14:12:2 T1=0.3810)
g_pConnectManager->start( )... (-147302080)(T0=2016-4-5_14:12:2 T1=0.3810)
g_pThreadManager->Start( )... (-147302080)(T0=2016-4-5_14:12:2 T1=0.3810)
g_pDBThreadManager->Start() ... (-147302080)(T0=2016-4-5_14:12:2 T1=0.3810)
g_pProcessManager->Loop( )... (-147302080)(T0=2016-4-5_14:12:2 T1=0.3810)
