
(###) main... (-146654912)(T0=2016-4-3_11:53:32 T1=0.0220)
Login Starting... (1604031153)(0) (-146654912)(T0=2016-4-3_11:53:32 T1=0.0220)
new ProcessManager...OK (-146654912)(T0=2016-4-3_11:53:32 T1=0.2190)
new PlayerPool...OK (-146654912)(T0=2016-4-3_11:53:32 T1=0.2190)
new PacketFactoryManager...OK (-146654912)(T0=2016-4-3_11:53:32 T1=0.2190)
new BillPacketFactoryManager...OK (-146654912)(T0=2016-4-3_11:53:32 T1=0.2190)
new g_pProcessPlayerQueue...OK (-146654912)(T0=2016-4-3_11:53:32 T1=0.2190)
new g_pWorldPlayerQueue...OK (-146654912)(T0=2016-4-3_11:53:32 T1=0.2190)
new ThreadManager...OK (-146654912)(T0=2016-4-3_11:53:32 T1=0.2190)
new ServerManager...OK (-146654912)(T0=2016-4-3_11:53:32 T1=0.2200)
new DBThreadManager...OK (-146654912)(T0=2016-4-3_11:53:32 T1=0.2200)
new ConnectManager...OK (-146654912)(T0=2016-4-3_11:53:32 T1=0.2210)
new FontFile...OK (-146654912)(T0=2016-4-3_11:53:32 T1=0.2210)
new IPRegionTable...OK (-146654912)(T0=2016-4-3_11:53:32 T1=0.2210)
new Generator...OK (-146654912)(T0=2016-4-3_11:53:32 T1=0.2210)
g_pPlayerPool->Init()...OK (-146654912)(T0=2016-4-3_11:53:32 T1=0.2760)
g_pPacketFactoryManager->Init()...OK (-146654912)(T0=2016-4-3_11:53:32 T1=0.2760)
g_pBPacketFactoryManager->Init()...OK (-146654912)(T0=2016-4-3_11:53:32 T1=0.2760)
g_pTurnPlayerQueue->Init() ... OK (-146654912)(T0=2016-4-3_11:53:32 T1=0.2760)
g_pWorldPlayerQueue->Init() ... OK (-146654912)(T0=2016-4-3_11:53:32 T1=0.2760)
g_pDBThreadManager->Init()...OK (-146654912)(T0=2016-4-3_11:53:32 T1=0.3030)
g_pDBThreadManager->CheckWorldIDZoneID(101,0)...OK (-146654912)(T0=2016-4-3_11:53:32 T1=0.3120)
g_pConnectManager->Init()...OK (-146654912)(T0=2016-4-3_11:53:32 T1=0.3150)
g_pProcessManager->Init()...OK (-146654912)(T0=2016-4-3_11:53:32 T1=0.3150)
g_pThreadManager->Init()...OK (-146654912)(T0=2016-4-3_11:53:32 T1=0.3150)
g_pGenerator->setFontFile()...OK (-146654912)(T0=2016-4-3_11:53:32 T1=0.3150)

Loop... (-146654912)(T0=2016-4-3_11:53:32 T1=0.3150)
g_pConnectManager->start( )... (-146654912)(T0=2016-4-3_11:53:32 T1=0.3150)
g_pThreadManager->Start( )... (-146654912)(T0=2016-4-3_11:53:32 T1=0.3150)
g_pDBThreadManager->Start() ... (-146654912)(T0=2016-4-3_11:53:32 T1=0.3150)
g_pProcessManager->Loop( )... (-146654912)(T0=2016-4-3_11:53:32 T1=0.3150)
