
(###) main... (-147424960)(T0=2016-4-3_11:32:25 T1=0.0390)
Login Starting... (1604031132)(0) (-147424960)(T0=2016-4-3_11:32:25 T1=0.0400)
new ProcessManager...OK (-147424960)(T0=2016-4-3_11:32:25 T1=0.2850)
new PlayerPool...OK (-147424960)(T0=2016-4-3_11:32:25 T1=0.2850)
new PacketFactoryManager...OK (-147424960)(T0=2016-4-3_11:32:25 T1=0.2850)
new BillPacketFactoryManager...OK (-147424960)(T0=2016-4-3_11:32:25 T1=0.2850)
new g_pProcessPlayerQueue...OK (-147424960)(T0=2016-4-3_11:32:25 T1=0.2850)
new g_pWorldPlayerQueue...OK (-147424960)(T0=2016-4-3_11:32:25 T1=0.2850)
new ThreadManager...OK (-147424960)(T0=2016-4-3_11:32:25 T1=0.2850)
new ServerManager...OK (-147424960)(T0=2016-4-3_11:32:25 T1=0.2860)
new DBThreadManager...OK (-147424960)(T0=2016-4-3_11:32:25 T1=0.2860)
new ConnectManager...OK (-147424960)(T0=2016-4-3_11:32:25 T1=0.2880)
new FontFile...OK (-147424960)(T0=2016-4-3_11:32:25 T1=0.2880)
new IPRegionTable...OK (-147424960)(T0=2016-4-3_11:32:25 T1=0.2880)
new Generator...OK (-147424960)(T0=2016-4-3_11:32:25 T1=0.2880)
g_pPlayerPool->Init()...OK (-147424960)(T0=2016-4-3_11:32:25 T1=0.3410)
g_pPacketFactoryManager->Init()...OK (-147424960)(T0=2016-4-3_11:32:25 T1=0.3410)
g_pBPacketFactoryManager->Init()...OK (-147424960)(T0=2016-4-3_11:32:25 T1=0.3410)
g_pTurnPlayerQueue->Init() ... OK (-147424960)(T0=2016-4-3_11:32:25 T1=0.3410)
g_pWorldPlayerQueue->Init() ... OK (-147424960)(T0=2016-4-3_11:32:25 T1=0.3410)
g_pDBThreadManager->Init()...OK (-147424960)(T0=2016-4-3_11:32:25 T1=0.3770)
g_pDBThreadManager->CheckWorldIDZoneID(101,0)...OK (-147424960)(T0=2016-4-3_11:32:25 T1=0.3920)
g_pConnectManager->Init()...OK (-147424960)(T0=2016-4-3_11:32:25 T1=0.3940)
g_pProcessManager->Init()...OK (-147424960)(T0=2016-4-3_11:32:25 T1=0.3940)
g_pThreadManager->Init()...OK (-147424960)(T0=2016-4-3_11:32:25 T1=0.3940)
g_pGenerator->setFontFile()...OK (-147424960)(T0=2016-4-3_11:32:25 T1=0.3940)

Loop... (-147424960)(T0=2016-4-3_11:32:25 T1=0.3940)
g_pConnectManager->start( )... (-147424960)(T0=2016-4-3_11:32:25 T1=0.3950)
g_pThreadManager->Start( )... (-147424960)(T0=2016-4-3_11:32:25 T1=0.3950)
g_pDBThreadManager->Start() ... (-147424960)(T0=2016-4-3_11:32:25 T1=0.3950)
g_pProcessManager->Loop( )... (-147424960)(T0=2016-4-3_11:32:25 T1=0.3950)
