
(###) main... (-147220160)(T0=2016-4-3_11:53:57 T1=0.0390)
Login Starting... (1604031153)(0) (-147220160)(T0=2016-4-3_11:53:57 T1=0.0390)
new ProcessManager...OK (-147220160)(T0=2016-4-3_11:53:58 T1=0.2880)
new PlayerPool...OK (-147220160)(T0=2016-4-3_11:53:58 T1=0.2880)
new PacketFactoryManager...OK (-147220160)(T0=2016-4-3_11:53:58 T1=0.2880)
new BillPacketFactoryManager...OK (-147220160)(T0=2016-4-3_11:53:58 T1=0.2880)
new g_pProcessPlayerQueue...OK (-147220160)(T0=2016-4-3_11:53:58 T1=0.2880)
new g_pWorldPlayerQueue...OK (-147220160)(T0=2016-4-3_11:53:58 T1=0.2890)
new ThreadManager...OK (-147220160)(T0=2016-4-3_11:53:58 T1=0.2890)
new ServerManager...OK (-147220160)(T0=2016-4-3_11:53:58 T1=0.2890)
new DBThreadManager...OK (-147220160)(T0=2016-4-3_11:53:58 T1=0.2890)
new ConnectManager...OK (-147220160)(T0=2016-4-3_11:53:58 T1=0.2900)
new FontFile...OK (-147220160)(T0=2016-4-3_11:53:58 T1=0.2900)
new IPRegionTable...OK (-147220160)(T0=2016-4-3_11:53:58 T1=0.2900)
new Generator...OK (-147220160)(T0=2016-4-3_11:53:58 T1=0.2900)
g_pPlayerPool->Init()...OK (-147220160)(T0=2016-4-3_11:53:58 T1=0.3430)
g_pPacketFactoryManager->Init()...OK (-147220160)(T0=2016-4-3_11:53:58 T1=0.3430)
g_pBPacketFactoryManager->Init()...OK (-147220160)(T0=2016-4-3_11:53:58 T1=0.3430)
g_pTurnPlayerQueue->Init() ... OK (-147220160)(T0=2016-4-3_11:53:58 T1=0.3430)
g_pWorldPlayerQueue->Init() ... OK (-147220160)(T0=2016-4-3_11:53:58 T1=0.3430)
g_pDBThreadManager->Init()...OK (-147220160)(T0=2016-4-3_11:53:58 T1=0.3720)
g_pDBThreadManager->CheckWorldIDZoneID(101,0)...OK (-147220160)(T0=2016-4-3_11:53:58 T1=0.3820)
g_pConnectManager->Init()...OK (-147220160)(T0=2016-4-3_11:53:58 T1=0.3840)
g_pProcessManager->Init()...OK (-147220160)(T0=2016-4-3_11:53:58 T1=0.3840)
g_pThreadManager->Init()...OK (-147220160)(T0=2016-4-3_11:53:58 T1=0.3840)
g_pGenerator->setFontFile()...OK (-147220160)(T0=2016-4-3_11:53:58 T1=0.3840)

Loop... (-147220160)(T0=2016-4-3_11:53:58 T1=0.3840)
g_pConnectManager->start( )... (-147220160)(T0=2016-4-3_11:53:58 T1=0.3840)
g_pThreadManager->Start( )... (-147220160)(T0=2016-4-3_11:53:58 T1=0.3840)
g_pDBThreadManager->Start() ... (-147220160)(T0=2016-4-3_11:53:58 T1=0.3840)
g_pProcessManager->Loop( )... (-147220160)(T0=2016-4-3_11:53:58 T1=0.3840)
